
 OpenBabel06242017183D

 12 11  0  0  0  0  0  0  0  0999 V2000
  -19.1963  -12.4998   -2.3357 N   0  3  0  0  0  0  0  0  0  0  0  0
  -20.0277  -12.3197   -1.1961 C   0  0  0  0  0  0  0  0  0  0  0  0
  -21.3329  -13.1100   -1.3304 C   0  0  0  0  0  0  0  0  0  0  0  0
  -19.4896  -12.6601   -0.2815 H   0  0  0  0  0  0  0  0  0  0  0  0
  -20.2688  -11.2384   -1.0746 H   0  0  0  0  0  0  0  0  0  0  0  0
  -22.1182  -12.9040   -0.1898 O   0  0  0  0  0  0  0  0  0  0  0  0
  -21.0952  -14.1930   -1.4302 H   0  0  0  0  0  0  0  0  0  0  0  0
  -21.8825  -12.7567   -2.2317 H   0  0  0  0  0  0  0  0  0  0  0  0
  -22.9459  -13.4343   -0.3263 H   0  0  0  0  0  0  0  0  0  0  0  0
  -18.4744  -12.0531   -2.2425 H   0  0  0  0  0  0  0  0  0  0  0  0
  -18.9560  -13.4663   -2.4489 H   0  0  0  0  0  0  0  0  0  0  0  0
  -19.6594  -12.1803   -3.1652 H   0  0  0  0  0  0  0  0  0  0  0  0
  1  2  1  0  0  0  0
  1 10  3  0  0  0  0
  1 11  1  0  0  0  0
  1 12  1  0  0  0  0
  2  3  1  0  0  0  0
  2  4  1  0  0  0  0
  2  5  1  0  0  0  0
  3  6  1  0  0  0  0
  3  7  1  0  0  0  0
  3  8  1  0  0  0  0
  6  9  1  0  0  0  0
M  CHG  1   1   1
M  END
