
 OpenBabel06242016573D

 17 16  0  0  0  0  0  0  0  0999 V2000
   -8.3768    2.2257    2.0154 C   0  0  0  0  0  0  0  0  0  0  0  0
   -7.2148    1.8461    1.0992 C   0  0  0  0  0  0  0  0  0  0  0  0
   -9.3366    1.9232    1.5461 H   0  0  0  0  0  0  0  0  0  0  0  0
   -8.3917    3.3236    2.1826 H   0  0  0  0  0  0  0  0  0  0  0  0
   -8.2796    1.7091    2.9938 H   0  0  0  0  0  0  0  0  0  0  0  0
   -5.9281    2.2348    1.6953 N   0  3  0  0  0  0  0  0  0  0  0  0
   -7.3542    2.3593    0.1212 H   0  0  0  0  0  0  0  0  0  0  0  0
   -7.2422    0.7458    0.9318 H   0  0  0  0  0  0  0  0  0  0  0  0
   -5.9185    3.2710    1.8488 H   0  0  0  0  0  0  0  0  0  0  0  0
   -5.8124    1.7457    2.6145 H   0  0  0  0  0  0  0  0  0  0  0  0
   -4.8145    1.8671    0.8082 C   0  0  0  0  0  0  0  0  0  0  0  0
   -3.4740    2.2679    1.4214 C   0  0  0  0  0  0  0  0  0  0  0  0
   -4.9215    2.3811   -0.1735 H   0  0  0  0  0  0  0  0  0  0  0  0
   -4.8093    0.7672    0.6363 H   0  0  0  0  0  0  0  0  0  0  0  0
   -3.4382    3.3662    1.5831 H   0  0  0  0  0  0  0  0  0  0  0  0
   -2.6490    1.9813    0.7356 H   0  0  0  0  0  0  0  0  0  0  0  0
   -3.3259    1.7512    2.3933 H   0  0  0  0  0  0  0  0  0  0  0  0
  1  2  1  0  0  0  0
  1  3  1  0  0  0  0
  1  4  1  0  0  0  0
  1  5  1  0  0  0  0
  2  6  1  0  0  0  0
  2  7  1  0  0  0  0
  2  8  1  0  0  0  0
  6  9  1  0  0  0  0
  6 10  1  0  0  0  0
  6 11  1  0  0  0  0
 11 12  1  0  0  0  0
 11 13  1  0  0  0  0
 11 14  1  0  0  0  0
 12 15  1  0  0  0  0
 12 16  1  0  0  0  0
 12 17  1  0  0  0  0
M  CHG  1   6   1
M  END
